/*--------------------------------*- C++ -*----------------------------------*\
| =========                 |                                                 |
| \\      /  F ield         | OpenFOAM: The Open Source CFD Toolbox           |
|  \\    /   O peration     | Version:  v1812                                 |
|   \\  /    A nd           | Web:      www.OpenFOAM.com                      |
|    \\/     M anipulation  |                                                 |
\*---------------------------------------------------------------------------*/
FoamFile
{
    version     2.0;
    format      binary;
    class       polyBoundaryMesh;
    arch        "LSB;label=32;scalar=64";
    location    "constant/polyMesh";
    object      boundary;
}
// * * * * * * * * * * * * * * * * * * * * * * * * * * * * * * * * * * * * * //

7
(
    inlet
    {
        type            patch;
        nFaces          686;
        startFace       259151;
    }
    outlet
    {
        type            patch;
        nFaces          0;
        startFace       259837;
    }
    symmetry
    {
        type            symmetry;
        inGroups        1(symmetry);
        nFaces          4047;
        startFace       259837;
    }
    bottom
    {
        type            wall;
        inGroups        1(wall);
        nFaces          196;
        startFace       263884;
    }
    top
    {
        type            patch;
        nFaces          213;
        startFace       264080;
    }
    Boat
    {
        type            wall;
        inGroups        1(wall);
        nFaces          6778;
        startFace       264293;
    }
    procBoundary0to1
    {
        type            processor;
        inGroups        1(processor);
        nFaces          1619;
        startFace       271071;
        matchTolerance  0.0001;
        transform       unknown;
        myProcNo        0;
        neighbProcNo    1;
    }
)

// ************************************************************************* //
