FoamFile
{
	version	2.0;
	class	dictionary;
	format	ascii;
	location	"system";
	object	fvSchemes;
}
ddtSchemes
{
	default	Euler;
}
gradSchemes
{
	default	Gauss linear;
}
divSchemes
{
	div(((rho*nuEff)*dev2(T(grad(U)))))	Gauss linear;
	div(R)	Gauss linear;
	default	Gauss upwind;
	div(rhoPhi,U)	Gauss upwind;
	div(phi,k)	Gauss upwind;
	div(phi,omega)	Gauss upwind;
	div(phi,alpha)	Gauss vanLeer;
	div(phirb,alpha)	Gauss linear;
}
laplacianSchemes
{
	default	Gauss linear corrected;
}
interpolationSchemes
{
	default	linear;
}
snGradSchemes
{
	default	corrected;
}
fluxRequired
{
	default	no;
	p_rgh	;
	pcorr	;
	alpha	;
}
wallDist
{
	method	meshWave;
	nRequired	false;
}
